Version 4
SHEET 1 1328 680
WIRE 48 80 48 48
WIRE 112 80 48 80
WIRE 496 80 336 80
WIRE 528 80 496 80
WIRE -640 96 -640 48
WIRE -528 96 -528 48
WIRE 112 144 0 144
WIRE 368 144 336 144
WIRE 400 144 368 144
WIRE 496 144 496 80
WIRE 496 144 480 144
WIRE -112 208 -128 208
WIRE 32 208 32 192
WIRE 32 208 -32 208
WIRE 112 208 32 208
WIRE 368 208 368 144
WIRE 368 208 336 208
WIRE 544 208 544 176
WIRE 544 208 368 208
WIRE -640 224 -640 176
WIRE -528 224 -528 176
WIRE 544 224 544 208
WIRE -128 272 -128 208
WIRE -128 272 -160 272
WIRE 112 272 -128 272
WIRE 384 272 336 272
WIRE 384 336 384 272
WIRE 544 336 544 288
WIRE 384 432 384 400
FLAG -640 224 0
FLAG -640 48 +5V
FLAG 528 80 +5V
FLAG 48 48 0
FLAG -160 272 +5V
FLAG -528 224 0
FLAG -528 48 Pulse
FLAG 544 336 0
FLAG 0 144 Pulse
FLAG 384 432 0
FLAG 32 192 out
FLAG 544 176 cap
SYMBOL Misc\\NE555 224 176 R0
SYMATTR InstName U1
SYMBOL voltage -640 80 R0
WINDOW 123 0 0 Left 0
WINDOW 39 0 0 Left 0
SYMATTR InstName V1
SYMATTR Value 5
SYMBOL res 496 128 R90
WINDOW 0 0 56 VBottom 2
WINDOW 3 32 56 VTop 2
SYMATTR InstName R1
SYMATTR Value {Ra}
SYMBOL cap 528 224 R0
SYMATTR InstName C1
SYMATTR Value {C}
SYMBOL res -16 192 R90
WINDOW 0 0 56 VBottom 2
WINDOW 3 32 56 VTop 2
SYMATTR InstName R2
SYMATTR Value {RL}
SYMBOL voltage -528 80 R0
WINDOW 123 0 0 Left 0
WINDOW 39 0 0 Left 0
WINDOW 3 420 -171 Right 2
SYMATTR Value PULSE({Vinitial} {Von} {Tdelay} {Trise} {Tfall} {Ton} {Tperiod} {N})
SYMATTR InstName V2
SYMBOL cap 368 336 R0
SYMATTR InstName C2
SYMATTR Value 1µ
TEXT -912 0 Left 2 !.tran 30
TEXT -952 64 Left 2 !.param Ra 90k
TEXT -952 104 Left 2 !.param RL 10k
TEXT -952 144 Left 2 !.param C 10u
TEXT -952 184 Left 2 !.param Vinitial 5
TEXT -952 224 Left 2 !.param Von 0
TEXT -952 264 Left 2 !.param Tdelay 1
TEXT -952 304 Left 2 !.param Trise 0
TEXT -952 344 Left 2 !.param Tfall 0
TEXT -952 384 Left 2 !.param Ton 0.1
TEXT -952 424 Left 2 !.param Tperiod 10
TEXT -952 464 Left 2 !.param N 2
TEXT -32 -16 Left 2 ;Pulse delay duration is tw=1.1Ra*C
TEXT -32 -88 Left 2 ;Pulse Delay Circuit using NE555 timer, \ninitiating operation when a falling edge pulse is provided.
TEXT 424 -16 Left 2 ;Current Time Delay--> tw=1s
